ECE6613PD/Project2/Base_14bus_lambda.m
Bus.con = [ ... 
  1  69  1  0  4  1;
  2  69  1  0  4  1;
  3  69  1  0  4  1;
  4  69  1  0  4  1;
  5  69  1  0  4  1;
  6  13.8  1  0  2  1;
  7  18  1  0  3  1;
  8  13.8  1  0  2  1;
  9  13.8  1  0  2  1;
  10  13.8  1  0  2  1;
  11  13.8  1  0  2  1;
  12  13.8  1  0  2  1;
  13  13.8  1  0  2  1;
 ];

Line.con = [ ... 
  2  5  100  69  60  0  0  0.05695  0.17388  0.034  0  0  0  0  0  1;
  6  11  100  13.8  60  0  0  0.12291  0.25581  0  0  0  0  0  0  1;
  11  12  100  13.8  60  0  0  0.22092  0.19988  0  0  0  0  0  0  1;
  6  12  100  13.8  60  0  0  0.06615  0.13027  0  0  0  0  0  0  1;
  6  10  100  13.8  60  0  0  0.09498  0.1989  0  0  0  0  0  0  1;
  10  9  100  13.8  60  0  0  0.08205  0.19207  0  0  0  0  0  0  1;
  8  9  100  13.8  60  0  0  0.03181  0.0845  0  0  0  0  0  0  1;
  8  13  100  13.8  60  0  0  0.12711  0.27038  0  0  0  0  0  0  1;
  13  12  100  13.8  60  0  0  0.17093  0.34802  0  0  0  0  0  0  1;
  1  2  100  69  60  0  0  0.01938  0.05917  0.0528  0  0  0  0  0  1;
  2  3  100  69  60  0  0  0.04699  0.19797  0.0438  0  0  0  0  0  1;
  3  4  100  69  60  0  0  0.06701  0.17103  0.0346  0  0  0  0  0  1;
  1  5  100  69  60  0  0  0.05403  0.22304  0.0492  0  0  0  0  0  1;
  5  4  100  69  60  0  0  0.01335  0.04211  0.0128  0  0  0  0  0  1;
  2  4  100  69  60  0  0  0.05811  0.17632  0.0374  0  0  0  0  0  1;
  5  6  100  69  60  0  5  0  0.25202  0  0.932  0  0  0  0  1;
  4  8  100  69  60  0  5  0  0.55618  0  0.969  0  0  0  0  1;
 ];

Breaker.con = [ ... 
  15  2  100  69  60  1  1  200  1  1;
 ];

SW.con = [ ... 
  1  100  69  1.06  0  9.9  -9.9  1.2  0.8  2.324  1  1  1;
 ];

PV.con = [ ... 
  2  100  69  0.4  1.045  0.5  -0.4  1.2  0.8  1  1;
  6  100  13.8  0  1.07  0.24  -0.06  1.2  0.8  1  1;
  3  100  69  0  1.01  0.4  0  1.2  0.8  1  1;
  7  100  18  0  1.09  0.24  -0.06  1.2  0.8  1  1;
 ];

lambda=1.3;
PQ.con = [ ... 
  10  100  13.8  lambda*0.035  lambda*0.018  1.2  0.8  0  1;
  12  100  13.8  lambda*0.135  lambda*0.058  1.2  0.8  0  1;
  3  100  69  lambda*0.942  lambda*0.19  1.2  0.8  0  1;
  5  100  69  lambda*0.076  lambda*0.016  1.2  0.8  0  1;
  2  100  69  lambda*0.217  lambda*0.127  1.2  0.8  0  1;
  6  100  13.8  lambda*0.112  lambda*0.075  1.2  0.8  0  1;
  4  100  69  lambda*0.478  lambda*0.04  1.2  0.8  0  1;
  13  100  13.8  lambda*0.149  lambda*0.05  1.2  0.8  0  1;
  11  100  13.8  lambda*0.061  lambda*0.016  1.2  0.8  0  1;
  9  100  13.8  lambda*0.09  lambda*0.058  1.2  0.8  0  1;
  8  100  13.8  lambda*0.295  lambda*0.166  1.2  0.8  0  1;
 ];

Twt.con = [ ... 
  4  8  7  100  60  69  13.8  18  0  0  0  0.31913  0.38527  0.28616  0.978  0  0  0  0  0  0  0  0  0  1;
 ];

Syn.con = [ ... 
  1  615  69  60  5.2  0.2396  0  0.8979  0.2995  0.23  7.4  0.03  0.646  0.646  0.4  0  0.033  10.296  2  0  0  1  1  0  0  0;
  3  60  69  60  6  0  0.0031  1.05  0.185  0.13  6.1  0.04  0.98  0.36  0.13  0.3  0.099  13.08  2  0  0  1  1  0  0  0;
  2  60  69  60  6  0  0.0031  1.05  0.185  0.13  6.1  0.04  0.98  0.36  0.13  0.3  0.099  13.08  2  0  0  1  1  0  0  0;
  7  25  18  60  6  0.134  0.0014  1.25  0.232  0.12  4.75  0.06  1.22  0.715  0.12  1.5  0.21  10.12  2  0  0  1  1  0  0  0;
  6  25  13.8  60  6  0.134  0.0014  1.25  0.232  0.12  4.75  0.06  1.22  0.715  0.12  1.5  0.21  10.12  2  0  0  1  1  0  0  0;
 ];

Exc.con = [ ... 
  1  2  7.32  0  300  0.02  0.002  1  1  0.2  0.001  0.0006  0.9;
  3  2  4.38  0  20  0.02  0.001  1  1  1.98  0.001  0.0006  0.9;
  2  2  4.38  0  20  0.02  0.001  1  1  1.98  0.001  0.0006  0.9;
  4  2  6.81  1.395  20  0.02  0.001  1  1  0.7  0.001  0.0006  0.9;
  5  2  6.81  1.395  20  0.02  0.001  1  1  0.7  0.001  0.0006  0.9;
 ];

Pss.con = [ ... 
  1  2  1  0.1  -0.1  5.0  10  0.3  0.02  0.3  0.02  25  0.5  20  5  0.045  0.045  0.045  -0.045  1  0.95  0  1;
 ];

Bus.names = {... 
  'Bus 01'; 'Bus 02'; 'Bus 03'; 'Bus 04'; 'Bus 05'; 
  'Bus 06'; 'Bus 08'; 'Bus 09'; 'Bus 10'; 'Bus 11'; 
  'Bus 12'; 'Bus 13'; 'Bus 14'};

